
**** 09/06/16 20:29:38 ***** PSpice 16.6.0 (October 2012) ***** ID# 0 ********

 ** Profile: "SCHEMATIC1-bb_buck_analyze"  [ C:\Ninfeion_Git\BBSolarController\pcb\cadence\schematic\sim\demo_3\bb_buck-PSpiceFiles\S


 ****     CIRCUIT DESCRIPTION


******************************************************************************




** Creating circuit file "bb_buck_analyze.cir" 
** WARNING: THIS AUTOMATICALLY GENERATED FILE MAY BE OVERWRITTEN BY SUBSEQUENT SIMULATIONS

*Libraries: 
* Profile Libraries :
* Local Libraries :
* From [PSPICE NETLIST] section of C:\Users\N\AppData\Roaming\SPB_Data\cdssetup\OrCAD_PSpice/16.6.0/PSpice.ini file:
.lib "nom.lib" 

*Analysis directives: 
.TRAN  0 1000us 0 1us 
.OPTIONS ADVCONV
.PROBE64 V(alias(*)) I(alias(*)) W(alias(*)) D(alias(*)) NOISE(alias(*)) 
.INC "..\SCHEMATIC1.net" 



**** INCLUDING SCHEMATIC1.net ****
* source BB_BUCK
M_M1         N00136 N00132 N00143 N00143 IRF150
V_V1         N00136 N00204 20Vdc
V_V2         N00132 N00143  
+PULSE 0 5 0 0.1us 0.1us 10us 20us
C_C1         N00204 OUT  100uF  TC=0,0 
R_R1         N00204 OUT  500 TC=0,0 
L_L1         N00143 OUT  0.5mH  
D_D1         N00204 N00143 D1N5818 

**** RESUMING bb_buck_analyze.cir ****
.END

ERROR(ORPSIM-15142): Node N00136 is floating

ERROR(ORPSIM-15142): Node N00132 is floating

ERROR(ORPSIM-15142): Node N00143 is floating

ERROR(ORPSIM-15142): Node N00204 is floating

ERROR(ORPSIM-15142): Node OUT is floating
