
**** 09/11/16 10:52:26 ***** PSpice 16.6.0 (October 2012) ***** ID# 0 ********

 ** Profile: "voltage_follower_sample-voltage_follower_low_support"  [ c:\ninfeion_git\bbsolarcontroller\pcb\cadence\schematic\sim\de


 ****     CIRCUIT DESCRIPTION


******************************************************************************




** Creating circuit file "voltage_follower_low_support.cir" 
** WARNING: THIS AUTOMATICALLY GENERATED FILE MAY BE OVERWRITTEN BY SUBSEQUENT SIMULATIONS

*Libraries: 
* Profile Libraries :
* Local Libraries :
* From [PSPICE NETLIST] section of C:\Users\N\AppData\Roaming\SPB_Data\cdssetup\OrCAD_PSpice/16.6.0/PSpice.ini file:
.lib "nom.lib" 

*Analysis directives: 
.TRAN  0 100ms 0 1ms 
.STEP LIN PARAM DUTY 4us 4us 1us 
.OPTIONS ADVCONV
.PROBE64 V(alias(*)) I(alias(*)) W(alias(*)) D(alias(*)) NOISE(alias(*)) 
.INC "..\voltage_follower_sample.net" 



**** INCLUDING voltage_follower_sample.net ****
* source BB_BUCK
M_M1         N00136 N13377 N00143 N00143 IRF150
V_V1         N00136 0 70Vdc
V_V2         N13377 N00143  
+PULSE 0 5 0 0.01us 0.01us {DUTY} 10us
C_C1         0 OUT  4700uF  TC=0,0 
R_R1         0 N00181  50 TC=0,0 
D_D1         0 N00143 D1N5818 
R_R2         OUT N00181  0.1 TC=0,0 
R_R3         N02079 OUT  450K TC=0,0 
R_R4         N02079 0  50k TC=0,0 
R_R5         N00181 N02066  450K TC=0,0 
R_R6         N02066 0  50k TC=0,0 
V_V3         0 VEE 0Vdc
V_V4         VCC 0 6Vdc
M_M2         N00136 N13287 N00143 N00143 IRF150
M_M3         N00136 N14575 N00143 N00143 IRF150
V_V5         N13287 N00143  
+PULSE 0 5 0 0.01us 0.01us {DUTY} 10us
V_V6         N14575 N00143  
+PULSE 0 5 0 0.01us 0.01us {DUTY} 10us
L_L2         N00143 OUT  5mH  
X_U3A         N02079 AD_I+ 0 VCC AD_I+ LM358/ON
X_U3B         N02066 AD_I- VEE VCC AD_I- LM358/ON
.PARAM  duty=1us

**** RESUMING voltage_follower_low_support.cir ****
.END

**** 09/11/16 10:52:26 ***** PSpice 16.6.0 (October 2012) ***** ID# 0 ********

 ** Profile: "voltage_follower_sample-voltage_follower_low_support"  [ c:\ninfeion_git\bbsolarcontroller\pcb\cadence\schematic\sim\de


 ****     Diode MODEL PARAMETERS


******************************************************************************




               D1N5818         X_U3A.dx        X_U3B.dx        
          IS    2.835000E-06  800.000000E-18  800.000000E-18 
         ISR   26.460000E-06                                 
         IKF     .3227                                       
          RS     .04712                                      
         CJO  359.300000E-12                                 
          VJ     .75                                         
           M     .6513                                       
         XTI    0                                            


**** 09/11/16 10:52:26 ***** PSpice 16.6.0 (October 2012) ***** ID# 0 ********

 ** Profile: "voltage_follower_sample-voltage_follower_low_support"  [ c:\ninfeion_git\bbsolarcontroller\pcb\cadence\schematic\sim\de


 ****     BJT MODEL PARAMETERS


******************************************************************************




               X_U3A.qx        X_U3B.qx        
               PNP             PNP             
       LEVEL    1               1            
          IS  800.000000E-18  800.000000E-18 
          BF   32.03           32.03         
          NF    1               1            
          BR    1               1            
          NR    1               1            
         ISS    0               0            
          RE    0               0            
          RC    0               0            
         CJE    0               0            
         VJE     .75             .75         
         CJC    0               0            
         VJC     .75             .75         
         MJC     .33             .33         
        XCJC    1               1            
         CJS    0               0            
         VJS     .75             .75         
          KF    0               0            
          AF    1               1            
          CN    2.2             2.2          
           D     .52             .52         


**** 09/11/16 10:52:26 ***** PSpice 16.6.0 (October 2012) ***** ID# 0 ********

 ** Profile: "voltage_follower_sample-voltage_follower_low_support"  [ c:\ninfeion_git\bbsolarcontroller\pcb\cadence\schematic\sim\de


 ****     MOSFET MODEL PARAMETERS


******************************************************************************




               IRF150          
               NMOS            
       LEVEL    3            
           L    2.000000E-06 
           W     .3          
         VTO    2.831        
          KP   20.530000E-06 
       GAMMA    0            
         PHI     .6          
      LAMBDA    0            
          RD    1.031000E-03 
          RS    1.624000E-03 
          RG   13.89         
         RDS  444.400000E+03 
          IS  194.000000E-18 
          JS    0            
          PB     .8          
        PBSW     .8          
         CBD    3.229000E-09 
          CJ    0            
        CJSW    0            
          TT  288.000000E-09 
        CGSO    9.027000E-09 
        CGDO    1.679000E-09 
        CGBO    0            
         TOX  100.000000E-09 
          XJ    0            
       UCRIT   10.000000E+03 
       DELTA    0            
         ETA    0            
      DIOMOD    1            
         VFB    0            
        LETA    0            
        WETA    0            
          U0    0            
        TEMP    0            
         VDD    5            
       XPART    0            


INTERNAL ERROR -- Overflow, Convert

ABORTING SIMULATION
**** 09/11/16 10:52:26 ***** PSpice 16.6.0 (October 2012) ***** ID# 0 ********

 ** Profile: "voltage_follower_sample-voltage_follower_low_support"  [ c:\ninfeion_git\bbsolarcontroller\pcb\cadence\schematic\sim\de


 ****     JOB STATISTICS SUMMARY

 ****     CURRENT STEP                     PARAM DUTY =    4.0000E-06


******************************************************************************



Node counts:
  Top level (NUNODS)                =          12
  External (NCNODS)                 =          44
  Total (NUMNOD)                    =          54

Total device count (NUMEL)          =          85
  Capacitors (C)                    =           7
  Diodes (D)                        =          15
  VCVS (E)                          =           2
  CCCS (F)                          =           2
  VCCS (G)                          =           4
  CCVS (H)                          =           2
  Current Sources (I)               =           2
  Inductors (L)                     =           1
  MosFETs (M)                       =           3
  BJTs (Q)                          =           4
  Resistors (R)                     =          24
  Voltage Sources (V)               =          18

Number of subcircuits (X)           =           2

Matrix statistics:
  Matrix size (NSTOP)               =          77
  Initial no. elements (NTTAR)      =         295
  No. elements w/ fillin (NTTBR)    =         488
  No. fillins (IFILL)               =         193
  No. overflows (NTTOV)             =         244
  No. LU operations (IOPS)          =        8374
  Percent sparsity (PERSPA)         =      91.769

Analysis statistics:
  No. total time points (NUMTTP)    =           0
  No. rejected time points (NUMRTP) =           0
  No. iterations (NUMNIT)           =           0

Load Threads                        =           4

Runtime statistics:                       Seconds      Iterations
  Matrix load                       =        0.00
  Matrix solution                   =        0.00               2
  Readin                            =         .03
  General setup                     =        0.00
  CMI setup                     =        0.00
  Setup                             =        0.00
  DC sweep                          =        0.00               0
  Bias point                        =        0.00               0
  AC and noise                      =        0.00               0
  Total transient analysis          =        0.00
  Output                            =        0.00
  Overhead                          =         .20
  Total job time (using Solver 1)   =         .11
