
**** 09/13/16 18:39:00 ***** PSpice 16.6.0 (October 2012) ***** ID# 0 ********

 ** Profile: "pi_filter-pi_filter_ac_analysis"  [ c:\ninfeion_git\bbsolarcontroller\pcb\cadence\schematic\sim\low_pass_analyze\low_pa


 ****     CIRCUIT DESCRIPTION


******************************************************************************




** Creating circuit file "pi_filter_ac_analysis.cir" 
** WARNING: THIS AUTOMATICALLY GENERATED FILE MAY BE OVERWRITTEN BY SUBSEQUENT SIMULATIONS

*Libraries: 
* Profile Libraries :
* Local Libraries :
* From [PSPICE NETLIST] section of C:\Users\N\AppData\Roaming\SPB_Data\cdssetup\OrCAD_PSpice/16.6.0/PSpice.ini file:
.lib "nom.lib" 

*Analysis directives: 
.AC LIN 1000000 1Hz 5kHz
.OPTIONS ADVCONV
.PROBE64 V(alias(*)) I(alias(*)) W(alias(*)) D(alias(*)) NOISE(alias(*)) 
.INC "..\pi_filter.net" 



**** INCLUDING pi_filter.net ****
* source LOW_PASS_FILTER
V_V1         N14183 0 DC 0Vdc AC 10Vac 
C_C30         N14038 N143881  0.1u  TC=0,0 
R_R2         N14183 N14038  100k TC=0,0 
R_R3         0 N143881  100k TC=0,0 

**** RESUMING pi_filter_ac_analysis.cir ****
.END

**** 09/13/16 18:39:00 ***** PSpice 16.6.0 (October 2012) ***** ID# 0 ********

 ** Profile: "pi_filter-pi_filter_ac_analysis"  [ c:\ninfeion_git\bbsolarcontroller\pcb\cadence\schematic\sim\low_pass_analyze\low_pa


 ****     SMALL SIGNAL BIAS SOLUTION       TEMPERATURE =   27.000 DEG C


******************************************************************************



 NODE   VOLTAGE     NODE   VOLTAGE     NODE   VOLTAGE     NODE   VOLTAGE


(N14038)    0.0000 (N14183)    0.0000 (N143881)    0.0000                   




    VOLTAGE SOURCE CURRENTS
    NAME         CURRENT

    V_V1         0.000E+00

    TOTAL POWER DISSIPATION   0.00E+00  WATTS



          JOB CONCLUDED

**** 09/13/16 18:39:00 ***** PSpice 16.6.0 (October 2012) ***** ID# 0 ********

 ** Profile: "pi_filter-pi_filter_ac_analysis"  [ c:\ninfeion_git\bbsolarcontroller\pcb\cadence\schematic\sim\low_pass_analyze\low_pa


 ****     JOB STATISTICS SUMMARY


******************************************************************************



  Total job time (using Solver 1)   =        7.49
