
**** 10/08/16 17:27:20 ****** PSpice 17.2.0 (March 2016) ****** ID# 0 ********

 ** Profile: "MOSFET_DRIVER_3-MOSFET_DRIVER_3"  [ c:\ninfeion_git\bbsolarcontroller\pcb\cadence\schematic\sim\bbcircuit_simulation-PS


 ****     CIRCUIT DESCRIPTION


******************************************************************************




** Creating circuit file "MOSFET_DRIVER_3.cir" 
** WARNING: THIS AUTOMATICALLY GENERATED FILE MAY BE OVERWRITTEN BY SUBSEQUENT SIMULATIONS

*Libraries: 
* Profile Libraries :
* Local Libraries :
* From [PSPICE NETLIST] section of C:\Cadence\SPB_Data\cdssetup\OrCAD_PSpice\17.2.0\PSpice.ini file:
.lib "nom.lib" 

*Analysis directives: 
.TRAN  0 1000us 0 
.OPTIONS ADVCONV
.PROBE64 V(alias(*)) I(alias(*)) W(alias(*)) D(alias(*)) NOISE(alias(*)) 
.INC "..\MOSFET_DRIVER_3.net" 



**** INCLUDING MOSFET_DRIVER_3.net ****
* source BBCIRCUIT_SIMULATION
M_M1         N323931 N324131 N324183 N324183 IRF150
V_V3         N323795 0 24Vdc
V_V11         N324097 0  
+PULSE 0 3.3 0 0.01us 0.01us 5us 10us
V_V1         V_L 0 3.3Vdc
R_R4         N324131 N323851  10 TC=0,0 
V_V2         V_H 0 35Vdc
Q_Q3         N323851 N323841 V_H BC557A 
R_R8         0 N324183  50 TC=0,0 
R_R7         N323931 N323795  50 TC=0,0 
Q_Q4         N323851 N323841 0 BC547A 
R_R9         N323841 N324097  10 TC=0,0 

**** RESUMING MOSFET_DRIVER_3.cir ****
.END

**** 10/08/16 17:27:20 ****** PSpice 17.2.0 (March 2016) ****** ID# 0 ********

 ** Profile: "MOSFET_DRIVER_3-MOSFET_DRIVER_3"  [ c:\ninfeion_git\bbsolarcontroller\pcb\cadence\schematic\sim\bbcircuit_simulation-PS


 ****     BJT MODEL PARAMETERS


******************************************************************************




               BC557A          BC547A          
               PNP             NPN             
       LEVEL    1               1            
          IS    1.020000E-15    7.049000E-15 
          BF  174.7           253            
          NF    1               1            
         VAF   73.79          127.9          
         IKF     .1023           .07705      
         ISE   10.730000E-15   96.260000E-15 
          NE    1.644           1.556        
          BR    4.432           1            
          NR    1               1            
         IKR    2.237           3.321        
         ISC   14.740000E-15  130.800000E-15 
          NC    1.296           1.602        
          NK     .5033           .5305       
         ISS    0               0            
          RE    0               0            
          RC    1.039            .8766       
         CJE   30.000000E-12   11.500000E-12 
         VJE     .5              .5          
         MJE     .3333           .6715       
         CJC    9.810000E-12    5.250000E-12 
         VJC     .4865           .5697       
         MJC     .332            .3147       
        XCJC    1               1            
         CJS    0               0            
         VJS     .75             .75         
          TF  830.300000E-12  409.500000E-12 
         XTF   10.32           40.12         
         VTF   10              10            
         ITF     .8981          1.994        
          TR   10.000000E-09   10.000000E-09 
         XTB    1.5             1.5          
          KF    0               0            
          AF    1               1            
          CN    2.2             2.42         
           D     .52             .87         


**** 10/08/16 17:27:20 ****** PSpice 17.2.0 (March 2016) ****** ID# 0 ********

 ** Profile: "MOSFET_DRIVER_3-MOSFET_DRIVER_3"  [ c:\ninfeion_git\bbsolarcontroller\pcb\cadence\schematic\sim\bbcircuit_simulation-PS


 ****     MOSFET MODEL PARAMETERS


******************************************************************************




               IRF150          
               NMOS            
       LEVEL    3            
           L    2.000000E-06 
           W     .3          
         VTO    2.831        
          KP   20.530000E-06 
       GAMMA    0            
         PHI     .6          
      LAMBDA    0            
          RD    1.031000E-03 
          RS    1.624000E-03 
          RG   13.89         
         RDS  444.400000E+03 
          IS  194.000000E-18 
          JS    0            
          PB     .8          
        PBSW     .8          
         CBD    3.229000E-09 
          CJ    0            
        CJSW    0            
          TT  288.000000E-09 
        CGSO    9.027000E-09 
        CGDO    1.679000E-09 
        CGBO    0            
         TOX  100.000000E-09 
          XJ    0            
       UCRIT   10.000000E+03 
       DELTA    0            
         ETA    0            
      DIOMOD    1            
         VFB    0            
        LETA    0            
        WETA    0            
          U0    0            
        TEMP    0            
         VDD    5            
       XPART    0            


Starting pseudo-transient algorithm.

ERROR -- Convergence problem in transient bias point calculation


  Last node voltages tried were:

 NODE   VOLTAGE     NODE   VOLTAGE     NODE   VOLTAGE     NODE   VOLTAGE


(  V_H)    3.2034  (  V_L)     .3020  (N323795)    2.1966                       

(N323841)    1.5815                   (N323851)    1.5341                       

(N323931)    2.1963                   (N324097)    0.0000                       

(N324131)    1.5341                   (N324183) 256.0E-06                   


  These voltages failed to converge:

    V(N324131)                =   127.19mV  \     1.534V
    V(N324183)                =     9.70fV  \   255.99uV
    V(N323851)                =   127.19mV  \     1.534V
    V(N323841)                =   216.69pV  \     1.582V

  These supply currents failed to converge:

    I(V_V3)                   =         0A  \   -5.029uA
    I(V_V11)                  =    21.67pA  \   158.15mA
    I(V_V2)                   =   -20.55pA  \   -10.00GA

  These devices failed to converge:
    Q_Q3      Q_Q4      

ERROR(ORPSIM-15659): Discontinuing simulation due to convergence problem

**** Interrupt ****
**** Param: RELTOL = 0.001
**** Param: ABSTOL = 1e-012
**** Param: VNTOL = 1e-006
**** Param: GMIN = 1e-012
**** Param: TSTOP = 0.001
**** Param: TMAX = 0
**** Param: ITL1 = 150
**** Param: ITL2 = 20
**** Param: ITL4 = 100
**** Param: AutoConverge = 1
**** Param: AutoConverge.ITL1 = 1000
**** Param: AutoConverge.ITL2 = 1000
**** Param: AutoConverge.ITL4 = 1000
**** Param: AutoConverge.RELTOL = 0.05
**** Param: AutoConverge.ABSTOL = 0.001
**** Param: AutoConverge.VNTOL = 0.001
**** Param: AutoConverge.PIVTOL = 1e-010
**** Param: ADVCONV = 1
**** Param: Current_Simulation = 0
**** Param: METHOD = 0
**** Param: TRTOL = 7
**** Param: STEPGMIN = 0
**** Param: GMINSTEPS = 0
**** Param: ITL6 = 0
**** Param: NOSTEPDEP = 0
**** Param: PTRANSTEP = 0
**** Param: GMINSRC = 0
**** Param: PSEUDOTRAN = 0
**** Param: NOSTEPSRC = 0

Starting pseudo-transient algorithm (from auto-convergence).

WARNING(ORPSIM-16534): Using high values of ITL4 for Speed Level > 0 may increase total simulation job time.
Convergence problem in transient bias point calculation


  Last node voltages tried were:

 NODE   VOLTAGE     NODE   VOLTAGE     NODE   VOLTAGE     NODE   VOLTAGE


(  V_H)    3.2034  (  V_L)     .3020  (N323795)    2.1966                       

(N323841)    1.5815                   (N323851)    1.5341                       

(N323931)    2.1963                   (N324097)    0.0000                       

(N324131)    1.5341                   (N324183) 256.0E-06                   

Resuming Simulation with the following settings
ITL1 = 291
ITL2 = 171


Starting pseudo-transient algorithm (from auto-convergence).
Convergence problem in transient bias point calculation


  Last node voltages tried were:

 NODE   VOLTAGE     NODE   VOLTAGE     NODE   VOLTAGE     NODE   VOLTAGE


(  V_H)    3.2034  (  V_L)     .3020  (N323795)    2.1966                       

(N323841)    1.5815                   (N323851)    1.5341                       

(N323931)    2.1963                   (N324097)    0.0000                       

(N324131)    1.5341                   (N324183) 256.0E-06                   

Resuming Simulation with the following settings
ITL1 = 565
ITL2 = 1000


Starting pseudo-transient algorithm (from auto-convergence).
Convergence problem in transient bias point calculation


  Last node voltages tried were:

 NODE   VOLTAGE     NODE   VOLTAGE     NODE   VOLTAGE     NODE   VOLTAGE


(  V_H)    3.2034  (  V_L)     .3020  (N323795)    2.1966                       

(N323841)    1.5815                   (N323851)    1.5341                       

(N323931)    2.1963                   (N324097)    0.0000                       

(N324131)    1.5341                   (N324183) 256.0E-06                   

Resuming Simulation with the following settings
ITL1 = 1000


Starting pseudo-transient algorithm (from auto-convergence).
Convergence problem in transient bias point calculation


  Last node voltages tried were:

 NODE   VOLTAGE     NODE   VOLTAGE     NODE   VOLTAGE     NODE   VOLTAGE


(  V_H)    3.2034  (  V_L)     .3020  (N323795)    2.1966                       

(N323841)    1.5815                   (N323851)    1.5341                       

(N323931)    2.1963                   (N324097)    0.0000                       

(N324131)    1.5341                   (N324183) 256.0E-06                   


ERROR(ORPSIM-16550): Floating point computation failed during matrix solution. Possible solutions: 1)Ensure that all device parameters are in valid range. 2)Try using .options LIMIT

INTERNAL ERROR -- Divide by Zero, Divide

ABORTING SIMULATION
**** 10/08/16 17:27:20 ****** PSpice 17.2.0 (March 2016) ****** ID# 0 ********

 ** Profile: "MOSFET_DRIVER_3-MOSFET_DRIVER_3"  [ c:\ninfeion_git\bbsolarcontroller\pcb\cadence\schematic\sim\bbcircuit_simulation-PS


 ****     JOB STATISTICS SUMMARY


******************************************************************************



Node counts:
  Top level (NUNODS)                =          10
  External (NCNODS)                 =          10
  Total (NUMNOD)                    =          15

Total device count (NUMEL)          =          11
  MosFETs (M)                       =           1
  BJTs (Q)                          =           2
  Resistors (R)                     =           4
  Voltage Sources (V)               =           4

Number of subcircuits (X)           =           0

Matrix statistics:
  Matrix size (NSTOP)               =          19
  Initial no. elements (NTTAR)      =          55
  No. elements w/ fillin (NTTBR)    =          60
  No. fillins (IFILL)               =           5
  No. overflows (NTTOV)             =          36
  No. LU operations (IOPS)          =          64
  Percent sparsity (PERSPA)         =      83.380

Analysis statistics:
  No. total time points (NUMTTP)    =         112
  No. rejected time points (NUMRTP) =          32
  No. iterations (NUMNIT)           =        2647

Load Threads                        =           1

Runtime statistics:                       Seconds      Iterations   Stopped At
  Matrix load                       =         .05
  Matrix solution                   =         .06              38
  Readin                            =        0.00
  General setup                     =         .02
  CMI setup                     =        0.00
  Setup                             =        0.00
  DC sweep                          =        0.00               0
  Bias point                        =        3.04               0
  Default algorithm                 =        2.96           -7000
  GMIN stepping                     =         .03            7000     100.00m
  Supply stepping                   =         .05               0        9.15%
  AC and noise                      =        0.00               0
  Total transient analysis          =        0.00
  Output                            =        0.00
  Overhead                          =         .05
  Total job time (using Solver 1)   =        3.06
