
**** 09/18/16 00:14:05 ***** PSpice 16.6.0 (October 2012) ***** ID# 0 ********

 ** Profile: "Bidirectional dc-dc-bidirectional dc-dc mix analysis"  [ c:\ninfeion_git\bbsolarcontroller\pcb\cadence\schematic\sim\bb


 ****     CIRCUIT DESCRIPTION


******************************************************************************




** Creating circuit file "bidirectional dc-dc mix analysis.cir" 
** WARNING: THIS AUTOMATICALLY GENERATED FILE MAY BE OVERWRITTEN BY SUBSEQUENT SIMULATIONS

*Libraries: 
* Profile Libraries :
* Local Libraries :
* From [PSPICE NETLIST] section of C:\Users\N\AppData\Roaming\SPB_Data\cdssetup\OrCAD_PSpice/16.6.0/PSpice.ini file:
.lib "nom.lib" 

*Analysis directives: 
.TRAN  0 1000us 0 1us 
.OPTIONS ADVCONV
.PROBE64 V(alias(*)) I(alias(*)) W(alias(*)) D(alias(*)) NOISE(alias(*)) 
.INC "..\Bidirectional dc-dc.net" 



**** INCLUDING "Bidirectional dc-dc.net" ****
* source BBCIRCUIT_SIMULATION
M_M1         N74928 N759731 N74964 N74964 IRF150
M_M2         N74964 N760501 0 0 IRF150
M_M3         N75020 N761271 N74984 N74984 IRF150
M_M4         N74984 N761681 0 0 IRF150
D_D1         N75152 N74928 MBR1045 
C_C1         0 N75232  1000u  TC=0,0 
R_R1         N75064 N75152  0.1 TC=0,0 
R_R2         N75156 N75232  0.1 TC=0,0 
R_R3         N75020 N75648  0.1 TC=0,0 
R_R4         0 N75648  50 TC=0,0 
L_L1         N75232 N74964  500mH  
V_V1         N759731 N74964  
+PULSE 0 5 {PHASE1} 0.01us 0.01us {DUTY1} 10us
V_V2         N760501 0  
+PULSE 5 0 {PHASE2} 0.01us 0.01us {DUTY2} 10us
V_V3         N761271 N74984  
+PULSE 0 5 {PHASE3} 0.01us 0.01us {DUTY3} 10us
V_V4         N761681 0  
+PULSE 5 0 {PHASE4} 0.01us 0.01us {DUTY4} 10us
V_V5         N75064 0 {SOLAR}
V_V6         N75156 0 {BATTERY}
L_L3         N80643 N74956  500mH  
L_L4         N74984 N75000  500mH  
Kn_K1         L_L3 L_L4     1
C_C7         0 N74940  10u  
C_C8         N74956 0  10u  
C_C13         N75020 N75000  10u  
C_C14         N75000 0  10u  
C_C15         N75020 0  1000u  
L_L5         N74940 N80643  500mH  
R_R5         N74956 N74940  50 TC=0,0 
.PARAM  phase_diff=1us dead_area=0.1us phase1=0.2us phase2=0 phase3=1.2us
+  duty1=4us solar=17 battery=12 duty2=4.4us phase4=1us duty3=4us duty4=4.4us

**** RESUMING "bidirectional dc-dc mix analysis.cir" ****
.END

ERROR(ORPSIM-15142): Node N80643 is floating

ERROR(ORPSIM-15142): Node N74956 is floating

ERROR(ORPSIM-15142): Node N74940 is floating
