
**** 09/14/16 14:27:02 ***** PSpice 16.6.0 (October 2012) ***** ID# 0 ********

 ** Profile: "KKK-KKK_analysis"  [ c:\ninfeion_git\bbsolarcontroller\pcb\cadence\schematic\sim\bbcircuit_simulation-PSpiceFiles\KKK\K


 ****     CIRCUIT DESCRIPTION


******************************************************************************




** Creating circuit file "KKK_analysis.cir" 
** WARNING: THIS AUTOMATICALLY GENERATED FILE MAY BE OVERWRITTEN BY SUBSEQUENT SIMULATIONS

*Libraries: 
* Profile Libraries :
* Local Libraries :
* From [PSPICE NETLIST] section of C:\Users\N\AppData\Roaming\SPB_Data\cdssetup\OrCAD_PSpice/16.6.0/PSpice.ini file:
.lib "nom.lib" 

*Analysis directives: 
.TRAN  0 1000ms 0 
.OPTIONS ADVCONV
.PROBE64 V(alias(*)) I(alias(*)) W(alias(*)) D(alias(*)) NOISE(alias(*)) 
.INC "..\KKK.net" 



**** INCLUDING KKK.net ****
* source BBCIRCUIT_SIMULATION
R_R2         N81040 0  40 TC=0,0 
V_V2         N81188 0  
+SIN 0 20 60 0 0 0
L_L3         N81036 0  1  
L_L4         N81040 0  0.065  
Kn_K1         L_L3 L_L4     1
R_R1         N81188 N81036  0.1 TC=0,0 

**** RESUMING KKK_analysis.cir ****
.END

**** 09/14/16 14:27:02 ***** PSpice 16.6.0 (October 2012) ***** ID# 0 ********

 ** Profile: "KKK-KKK_analysis"  [ c:\ninfeion_git\bbsolarcontroller\pcb\cadence\schematic\sim\bbcircuit_simulation-PSpiceFiles\KKK\K


 ****     INITIAL TRANSIENT SOLUTION       TEMPERATURE =   27.000 DEG C


******************************************************************************



 NODE   VOLTAGE     NODE   VOLTAGE     NODE   VOLTAGE     NODE   VOLTAGE


(N81036)    0.0000 (N81040)    0.0000 (N81188)    0.0000 




    VOLTAGE SOURCE CURRENTS
    NAME         CURRENT

    V_V2         0.000E+00

    TOTAL POWER DISSIPATION   0.00E+00  WATTS



          JOB CONCLUDED

**** 09/14/16 14:27:02 ***** PSpice 16.6.0 (October 2012) ***** ID# 0 ********

 ** Profile: "KKK-KKK_analysis"  [ c:\ninfeion_git\bbsolarcontroller\pcb\cadence\schematic\sim\bbcircuit_simulation-PSpiceFiles\KKK\K


 ****     JOB STATISTICS SUMMARY


******************************************************************************



  Total job time (using Solver 1)   =         .02
