
**** 09/21/16 18:54:48 ***** PSpice 16.6.0 (October 2012) ***** ID# 0 ********

 ** Profile: "KKK-KKK_analysis"  [ c:\ninfeion_git\bbsolarcontroller\pcb\cadence\schematic\sim\bbcircuit_simulation-pspicefiles\kkk\k


 ****     CIRCUIT DESCRIPTION


******************************************************************************




** Creating circuit file "KKK_analysis.cir" 
** WARNING: THIS AUTOMATICALLY GENERATED FILE MAY BE OVERWRITTEN BY SUBSEQUENT SIMULATIONS

*Libraries: 
* Profile Libraries :
* Local Libraries :
* From [PSPICE NETLIST] section of C:\Users\N\AppData\Roaming\SPB_Data\cdssetup\OrCAD_PSpice/16.6.0/PSpice.ini file:
.lib "nom.lib" 

*Analysis directives: 
.TRAN  0 10ms 0 1ms 
.OPTIONS ADVCONV
.PROBE64 V(alias(*)) I(alias(*)) W(alias(*)) D(alias(*)) NOISE(alias(*)) 
.INC "..\KKK.net" 



**** INCLUDING KKK.net ****
* source BBCIRCUIT_SIMULATION
R_R2         N81040 0  40 TC=0,0 
V_V2         N81188 0  
+SIN 0 20 60 0 0 0
L_L3         N81036 0  1  
L_L4         N81040 0  20  
Kn_K1         L_L3 L_L4     1
R_R1         N81188 N81036  0.1 TC=0,0 
R_R3         N85167 0  1k TC=0,0 
V_V1         N85167 0  
+PULSE 0 5 0.01us 0.0001us 0.0001us 0.8us 1us

**** RESUMING KKK_analysis.cir ****
.END

**** 09/21/16 18:54:48 ***** PSpice 16.6.0 (October 2012) ***** ID# 0 ********

 ** Profile: "KKK-KKK_analysis"  [ c:\ninfeion_git\bbsolarcontroller\pcb\cadence\schematic\sim\bbcircuit_simulation-pspicefiles\kkk\k


 ****     INITIAL TRANSIENT SOLUTION       TEMPERATURE =   27.000 DEG C


******************************************************************************



 NODE   VOLTAGE     NODE   VOLTAGE     NODE   VOLTAGE     NODE   VOLTAGE


(N81036)    0.0000 (N81040)    0.0000 (N81188)    0.0000 (N85167)    0.0000 




    VOLTAGE SOURCE CURRENTS
    NAME         CURRENT

    V_V2         0.000E+00
    V_V1         0.000E+00

    TOTAL POWER DISSIPATION   0.00E+00  WATTS

Reducing minimum delta to make the circuit converge.
Reducing minimum delta to make the circuit converge.
Reducing minimum delta to make the circuit converge.
Reducing minimum delta to make the circuit converge.
Reducing minimum delta to make the circuit converge.

ERROR(ORPSIM-15138): Convergence problem in Transient Analysis at Time =  8.332E-03.
         Time step =  238.9E-21, minimum allowable step size =  1.000E-18

  These voltages failed to converge:

    V(N81040)                 =    -24.01V  \    -35.56V
    V(N81036)                 =   268.31mV  \   397.48mV

  These supply currents failed to converge:

    I(L_L3)                   =    -2.583A  \    -3.875A
    I(L_L4)                   =   600.24mA  \   889.06mA
    I(V_V2)                   =     2.583A  \     3.875A



  Last node voltages tried were:

 NODE   VOLTAGE     NODE   VOLTAGE     NODE   VOLTAGE     NODE   VOLTAGE


(N81036)     .2683 (N81040)  -24.0100 (N81188)     .0100 (N85167)    5.0000 


**** Interrupt ****
**** Param: RELTOL = 0.001
**** Param: ABSTOL = 1e-012
**** Param: VNTOL = 1e-006
**** Param: GMIN = 1e-012
**** Param: TSTOP = 0.01
**** Param: TMAX = 0.001
**** Param: ITL1 = 150
**** Param: ITL2 = 20
**** Param: ITL4 = 100
**** Param: AutoConverge = 1
**** Param: AutoConverge.ITL1 = 1000
**** Param: AutoConverge.ITL2 = 1000
**** Param: AutoConverge.ITL4 = 1000
**** Param: AutoConverge.RELTOL = 0.05
**** Param: AutoConverge.ABSTOL = 0.001
**** Param: AutoConverge.VNTOL = 0.001
**** Param: AutoConverge.PIVTOL = 1e-010
**** Param: ADVCONV = 1
**** Param: Current_Simulation = 3
**** Param: METHOD = 0
**** Param: TRTOL = 7
**** Param: STEPGMIN = 0
**** Param: GMINSTEPS = 0
**** Param: ITL6 = 0
**** Param: NOSTEPDEP = 0
**** Param: PTRANSTEP = 0
**** Param: GMINSRC = 0
**** Param: PSEUDOTRAN = 0
**** Param: NOSTEPSRC = 0
Convergence problem in transient analysis at Time =  8.332E-03
         Time step =  477.7E-21, minimum allowable step size =  1.000E-18

  These voltages failed to converge:

    V(N81040)                 =    -24.01V  \    -35.56V
    V(N81036)                 =   268.31mV  \   397.48mV

  These supply currents failed to converge:

    I(L_L3)                   =    -2.583A  \    -3.875A
    I(L_L4)                   =   600.24mA  \   889.06mA
    I(V_V2)                   =     2.583A  \     3.875A



  Last node voltages tried were:

 NODE   VOLTAGE     NODE   VOLTAGE     NODE   VOLTAGE     NODE   VOLTAGE


(N81036)     .2683 (N81040)  -24.0100 (N81188)     .0100 (N85167)    5.0000 

Resuming Simulation with the following settings
ITL4 = 354
RELTOL = 0.0086

Convergence problem in transient analysis at Time =  8.332E-03
         Time step =  477.7E-21, minimum allowable step size =  1.000E-18

  These voltages failed to converge:

    V(N81040)                 =    -24.01V  \    -35.56V
    V(N81036)                 =   268.31mV  \   397.48mV

  These supply currents failed to converge:

    I(L_L3)                   =    -2.583A  \    -3.875A
    I(L_L4)                   =   600.24mA  \   889.06mA
    I(V_V2)                   =     2.583A  \     3.875A



  Last node voltages tried were:

 NODE   VOLTAGE     NODE   VOLTAGE     NODE   VOLTAGE     NODE   VOLTAGE


(N81036)     .2683 (N81040)  -24.0100 (N81188)     .0100 (N85167)    5.0000 

Resuming Simulation with the following settings
ITL4 = 1000
RELTOL = 0.05

Convergence problem in transient analysis at Time =  8.332E-03
         Time step =  477.7E-21, minimum allowable step size =  1.000E-18

  These voltages failed to converge:

    V(N81040)                 =    -24.01V  \    -35.56V
    V(N81036)                 =   268.31mV  \   397.48mV

  These supply currents failed to converge:

    I(L_L3)                   =    -2.583A  \    -3.875A
    I(L_L4)                   =   600.24mA  \   889.06mA
    I(V_V2)                   =     2.583A  \     3.875A



  Last node voltages tried were:

 NODE   VOLTAGE     NODE   VOLTAGE     NODE   VOLTAGE     NODE   VOLTAGE


(N81036)     .2683 (N81040)  -24.0100 (N81188)     .0100 (N85167)    5.0000 

Resuming could not converge the circuit, restarting it now

INTERNAL ERROR -- Divide by Zero, Divide

ABORTING SIMULATION
**** 09/21/16 18:54:48 ***** PSpice 16.6.0 (October 2012) ***** ID# 0 ********

 ** Profile: "KKK-KKK_analysis"  [ c:\ninfeion_git\bbsolarcontroller\pcb\cadence\schematic\sim\bbcircuit_simulation-pspicefiles\kkk\k


 ****     JOB STATISTICS SUMMARY


******************************************************************************



Node counts:
  Top level (NUNODS)                =           5
  External (NCNODS)                 =           5
  Total (NUMNOD)                    =           5

Total device count (NUMEL)          =          11
  Couplings (K)                     =           2
  Inductors (L)                     =           2
  Resistors (R)                     =           3
  Voltage Sources (V)               =           2

Number of subcircuits (X)           =           0

Matrix statistics:
  Matrix size (NSTOP)               =           9
  Initial no. elements (NTTAR)      =          18
  No. elements w/ fillin (NTTBR)    =          18
  No. fillins (IFILL)               =           0
  No. overflows (NTTOV)             =          14
  No. LU operations (IOPS)          =           6
  Percent sparsity (PERSPA)         =      77.778

Analysis statistics:
  No. total time points (NUMTTP)    =      333356
  No. rejected time points (NUMRTP) =          39
  No. iterations (NUMNIT)           =     1003511

Size of Probe file                  =    53354452
Load Threads                        =           1

Runtime statistics:                       Seconds      Iterations
  Matrix load                       =         .67
  Matrix solution                   =         .24               3
  Readin                            =        0.00
  General setup                     =        0.00
  CMI setup                     =        0.00
  Setup                             =        0.00
  DC sweep                          =        0.00               0
  Bias point                        =        0.00               5
  AC and noise                      =        0.00               0
  Total transient analysis          =        0.00
  Output                            =        0.00
  Overhead                          =         .23
  Total job time (using Solver 1)   =        5.13
